2024_89_CemigReconfigurationCases/1_AlimsCemig/NVSU22/NVSU22SegmentosMT.dss
new line.SMT_10170217 bus1=BMT6309991B.2,bus2=BMT165372791.2,Phases=1,Linecode=CAB103_3_1_1,Length=0.074977000,Units=km
new line.SMT_10182033 bus1=BMT6328618B.3,bus2=BMT165372547.3,Phases=1,Linecode=CAB103_3_1_1,Length=0.072397000,Units=km
new line.SMT_10182040 bus1=BMT165372547.3,bus2=BMT6328632B.3,Phases=1,Linecode=CABA06_3_1_1,Length=0.035820000,Units=km
new line.SMT_10182047 bus1=BMT6328632B.3,bus2=BMT165372548.3,Phases=1,Linecode=CABA06_3_1_1,Length=0.037659000,Units=km
new line.SMT_10496515 bus1=BMT3503244B.2,bus2=BMT165402941.2,Phases=1,Linecode=CAB202_3_1_1,Length=0.060058000,Units=km
new line.SMT_10496522 bus1=BMT165402941.2,bus2=BMT165402943.2,Phases=1,Linecode=CAB103_3_1_1,Length=0.010005000,Units=km
new line.SMT_10496529 bus1=BMT165402941.2,bus2=BMT6757669B.2,Phases=1,Linecode=CAB202_3_1_1,Length=0.079461000,Units=km
new line.SMT_10496536 bus1=BMT6757669B.2,bus2=BMT6757676B.2,Phases=1,Linecode=CAB202_3_1_1,Length=0.097554000,Units=km
new line.SMT_10496543 bus1=BMT6757676B.2,bus2=BMT165402944.2,Phases=1,Linecode=CAB202_3_1_1,Length=0.333398000,Units=km
new line.SMT_10498475 bus1=BMT173807206.2,bus2=BMT6759244B.2,Phases=1,Linecode=CAB202_3_1_1,Length=0.076953000,Units=km
new line.SMT_10498482 bus1=BMT6759244B.2,bus2=BMT173807208.2,Phases=1,Linecode=CAB202_3_1_1,Length=0.112090000,Units=km
new line.SMT_10668435 bus1=BMT3063959B.1.2.3,bus2=BMT6931437B.1.2.3,Phases=3,Linecode=CABA06_3_3_3,Length=0.054731000,Units=km
new line.SMT_10668442 bus1=BMT6931437B.1.2.3,bus2=BMT165372377.1.2.3,Phases=3,Linecode=CABA06_3_3_3,Length=0.055593000,Units=km
new line.SMT_10668463 bus1=BMT1754504B.1.2.3,bus2=BMT165372376.1.2.3,Phases=3,Linecode=CABA06_3_3_3,Length=0.049950000,Units=km
new line.SMT_10668470 bus1=BMT165372376.1.2.3,bus2=BMT3063959B.1.2.3,Phases=3,Linecode=CABA06_3_3_3,Length=0.050270000,Units=km
new line.SMT_10668533 bus1=BMT6931521B.1.2.3,bus2=BMT1754504B.1.2.3,Phases=3,Linecode=CABA06_3_3_3,Length=0.049760000,Units=km
new line.SMT_10668575 bus1=BMT6931535B.1.2.3,bus2=BMT6931521B.1.2.3,Phases=3,Linecode=CABA06_3_3_3,Length=0.049760000,Units=km
new line.SMT_10668631 bus1=BMT165372375.1.2.3,bus2=BMT6931577B.1.2.3,Phases=3,Linecode=CABA06_3_3_3,Length=0.040833000,Units=km
new line.SMT_10668638 bus1=BMT6931577B.1.2.3,bus2=BMT6931535B.1.2.3,Phases=3,Linecode=CABA06_3_3_3,Length=0.053874000,Units=km
new line.SMT_10668946 bus1=BMT165372394.3,bus2=BMT6931353B.3,Phases=1,Linecode=CABA06_3_1_1,Length=0.050140000,Units=km
new line.SMT_10669009 bus1=BMT6931353B.3,bus2=BMT165372396.3,Phases=1,Linecode=CABA06_3_1_1,Length=0.050140000,Units=km
new line.SMT_10795226 bus1=BMT173807376.1.2.3,bus2=BMT7053405B.1.2.3,Phases=3,Linecode=CABA06_3_3_3,Length=0.037499000,Units=km
new line.SMT_10795240 bus1=BMT7053405B.1.2.3,bus2=BMT7053398B.1.2.3,Phases=3,Linecode=CABA06_3_3_3,Length=0.040625000,Units=km
new line.SMT_10795352 bus1=BMT7053384B.1.2.3,bus2=BMT173807377.1.2.3,Phases=3,Linecode=CABA06_3_3_3,Length=0.048528000,Units=km
new line.SMT_10795359 bus1=BMT173807377.1.2.3,bus2=BMT7053328B.1.2.3,Phases=3,Linecode=CABA06_3_3_3,Length=0.049669000,Units=km
new line.SMT_10795366 bus1=BMT7053328B.1.2.3,bus2=BMT1755008B.1.2.3,Phases=3,Linecode=CABA06_3_3_3,Length=0.045417000,Units=km
new line.SMT_10795387 bus1=BMT1755008B.1.2.3,bus2=BMT173807378.1.2.3,Phases=3,Linecode=CABA06_3_3_3,Length=0.038487000,Units=km
new line.SMT_10795457 bus1=BMT173807378.1,bus2=BMT7053692B.1,Phases=1,Linecode=CABA06_3_1_1,Length=0.049669000,Units=km
new line.SMT_10795464 bus1=BMT7053692B.1,bus2=BMT173807380.1,Phases=1,Linecode=CABA06_3_1_1,Length=0.049669000,Units=km
new line.SMT_10795723 bus1=BMT173807378.1.2.3,bus2=BMT7054266B.1.2.3,Phases=3,Linecode=CABA06_3_3_3,Length=0.044572000,Units=km
new line.SMT_10795730 bus1=BMT7054266B.1.2.3,bus2=BMT173807381.1.2.3,Phases=3,Linecode=CABA06_3_3_3,Length=0.044572000,Units=km
new line.SMT_10795737 bus1=BMT173807381.1,bus2=BMT7053951B.1,Phases=1,Linecode=CABA06_3_1_1,Length=0.046710000,Units=km
new line.SMT_10795744 bus1=BMT7053951B.1,bus2=BMT173807382.1,Phases=1,Linecode=CABA06_3_1_1,Length=0.056909000,Units=km
new line.SMT_10795898 bus1=BMT173807381.2,bus2=BMT7054574B.2,Phases=1,Linecode=CABA06_3_1_1,Length=0.045724000,Units=km
new line.SMT_10795905 bus1=BMT7054574B.2,bus2=BMT7054371B.2,Phases=1,Linecode=CABA06_3_1_1,Length=0.045724000,Units=km
new line.SMT_10795912 bus1=BMT7054371B.2,bus2=BMT7054392B.2,Phases=1,Linecode=CABA06_3_1_1,Length=0.047538000,Units=km
new line.SMT_10795919 bus1=BMT7054392B.2,bus2=BMT173807383.2,Phases=1,Linecode=CABA06_3_1_1,Length=0.052633000,Units=km
new line.SMT_10795954 bus1=BMT173807379.3,bus2=BMT7053181B.3,Phases=1,Linecode=CABA06_3_1_1,Length=0.043481000,Units=km
new line.SMT_10795961 bus1=BMT7053181B.3,bus2=BMT7053188B.3,Phases=1,Linecode=CABA06_3_1_1,Length=0.042960000,Units=km
new line.SMT_10795968 bus1=BMT7053188B.3,bus2=BMT173807385.3,Phases=1,Linecode=CABA06_3_1_1,Length=0.047433000,Units=km
new line.SMT_10995580 bus1=BMT3644049B.1.2.3,bus2=BMT7228293B.1.2.3,Phases=3,Linecode=CABA06_3_3_3,Length=0.032216000,Units=km
new line.SMT_10995587 bus1=BMT7228293B.1.2.3,bus2=BMT3644056B.1.2.3,Phases=3,Linecode=CABA06_3_3_3,Length=0.022482000,Units=km
new line.SMT_10995671 bus1=BMT3644056B.1.2.3,bus2=BMT7228440B.1.2.3,Phases=3,Linecode=CABA06_3_3_3,Length=0.024176000,Units=km
new line.SMT_10368863 bus1=BMT173322009.2,bus2=BMT173322011.2,Phases=1,Linecode=CAB103_3_1_1,Length=0.016038000,Units=km
new line.SMT_10574012 bus1=BMT179257115.1,bus2=BMT179257117.1,Phases=1,Linecode=CAB202_3_1_1,Length=0.144259000,Units=km
new line.SMT_10574460 bus1=BMT179143826.1.2.3,bus2=BMT6832646B.1.2.3,Phases=3,Linecode=CABA06_3_3_3,Length=0.032709000,Units=km
new line.SMT_10574474 bus1=BMT6832653B.1.2.3,bus2=BMT6832688B.1.2.3,Phases=3,Linecode=CABA06_3_3_3,Length=0.026412000,Units=km
new line.SMT_10574481 bus1=BMT6832688B.1.2.3,bus2=BMT6832695B.1.2.3,Phases=3,Linecode=CABA06_3_3_3,Length=0.046117000,Units=km
new line.SMT_10737147 bus1=BMT173315920.1,bus2=BMT6999407B.1,Phases=1,Linecode=CAB202_3_1_1,Length=0.037015000,Units=km
new line.SMT_10737154 bus1=BMT6999407B.1,bus2=BMT173315921.1,Phases=1,Linecode=CAB202_3_1_1,Length=0.050140000,Units=km
new line.SMT_10738176 bus1=BMT176735886.1.2.3,bus2=BMT176735888.1.2.3,Phases=3,Linecode=CABA06_3_3_3,Length=0.047115000,Units=km
new line.SMT_10738183 bus1=BMT176735888.1.2.3,bus2=BMT173315904.1.2.3,Phases=3,Linecode=CABA06_3_3_3,Length=0.046117000,Units=km
new line.SMT_10738218 bus1=BMT176735884.1.2.3,bus2=BMT3062461B.1.2.3,Phases=3,Linecode=CABA06_3_3_3,Length=0.046193000,Units=km
new line.SMT_10738246 bus1=BMT7000737B.1.2.3,bus2=BMT176735884.1.2.3,Phases=3,Linecode=CABA06_3_3_3,Length=0.047285000,Units=km
new line.SMT_10738267 bus1=BMT176735882.1.2.3,bus2=BMT7000772B.1.2.3,Phases=3,Linecode=CABA06_3_3_3,Length=0.045296000,Units=km
new line.SMT_10738274 bus1=BMT7000772B.1.2.3,bus2=BMT7000737B.1.2.3,Phases=3,Linecode=CABA06_3_3_3,Length=0.044120000,Units=km
new line.SMT_10738960 bus1=BMT173315904.3,bus2=BMT173315703.3,Phases=1,Linecode=CABA06_3_1_1,Length=0.050180000,Units=km
new line.SMT_10738967 bus1=BMT173315855.3,bus2=BMT7001458B.3,Phases=1,Linecode=CABA06_3_1_1,Length=0.052175000,Units=km
new line.SMT_10738974 bus1=BMT7001458B.3,bus2=BMT7001465B.3,Phases=1,Linecode=CABA06_3_1_1,Length=0.051178000,Units=km
new line.SMT_10738981 bus1=BMT7001465B.3,bus2=BMT7001472B.3,Phases=1,Linecode=CABA06_3_1_1,Length=0.027085000,Units=km
new line.SMT_10738988 bus1=BMT7001472B.3,bus2=BMT173315856.3,Phases=1,Linecode=CABA06_3_1_1,Length=0.028083000,Units=km
new line.SMT_10738995 bus1=BMT173315856.3,bus2=BMT7001493B.3,Phases=1,Linecode=CABA06_3_1_1,Length=0.080338000,Units=km
new line.SMT_10739002 bus1=BMT7001493B.3,bus2=BMT7001444B.3,Phases=1,Linecode=CABA06_3_1_1,Length=0.039221000,Units=km
new line.SMT_10739009 bus1=BMT7001444B.3,bus2=BMT173315857.3,Phases=1,Linecode=CABA06_3_1_1,Length=0.054941000,Units=km
new line.SMT_10739030 bus1=BMT173315856.3,bus2=BMT7001563B.3,Phases=1,Linecode=CABA06_3_1_1,Length=0.041634000,Units=km
new line.SMT_10739037 bus1=BMT7001563B.3,bus2=BMT7001570B.3,Phases=1,Linecode=CABA06_3_1_1,Length=0.042456000,Units=km
new line.SMT_10739044 bus1=BMT7001570B.3,bus2=BMT7001577B.3,Phases=1,Linecode=CABA06_3_1_1,Length=0.041066000,Units=km
new line.SMT_10739051 bus1=BMT7001577B.3,bus2=BMT7001591B.3,Phases=1,Linecode=CABA06_3_1_1,Length=0.055240000,Units=km
new line.SMT_10739058 bus1=BMT7001591B.3,bus2=BMT7001598B.3,Phases=1,Linecode=CABA06_3_1_1,Length=0.056059000,Units=km
new line.SMT_10739065 bus1=BMT7001598B.3,bus2=BMT173315858.3,Phases=1,Linecode=CABA06_3_1_1,Length=0.038029000,Units=km
new line.SMT_10739751 bus1=BMT176735885.1,bus2=BMT173315420.1,Phases=1,Linecode=CAB103_3_1_1,Length=0.029081000,Units=km
new line.SMT_10739758 bus1=BMT173315440.1,bus2=BMT2496273B.1,Phases=1,Linecode=CAB202_3_1_1,Length=0.060233000,Units=km
new line.SMT_1142359 bus1=BMT171874107.3,bus2=BMT171874108.3,Phases=1,Linecode=CAB202_3_1_1,Length=0.048897000,Units=km
new line.SMT_1142534 bus1=BMT165372440.3,bus2=BMT761281B.3,Phases=1,Linecode=CAB102_3_1_1,Length=0.025010000,Units=km
new line.SMT_1142541 bus1=BMT761204B.3,bus2=BMT165372440.3,Phases=1,Linecode=CAB102_3_1_1,Length=0.022145000,Units=km
new line.SMT_1142569 bus1=BMT165372439.3,bus2=BMT761204B.3,Phases=1,Linecode=CAB102_3_1_1,Length=0.036374000,Units=km
new line.SMT_1142576 bus1=BMT165372439.3,bus2=BMT761239B.3,Phases=1,Linecode=CAB103_3_1_1,Length=0.023780000,Units=km
new line.SMT_1142590 bus1=BMT761218B.3,bus2=BMT165372439.3,Phases=1,Linecode=CAB102_3_1_1,Length=0.028314000,Units=km
new line.SMT_1142625 bus1=BMT165372438.3,bus2=BMT761218B.3,Phases=1,Linecode=CAB102_3_1_1,Length=0.029423000,Units=km
new line.SMT_1142646 bus1=BMT761239B.3,bus2=BMT761246B.3,Phases=1,Linecode=CAB103_3_1_1,Length=0.025010000,Units=km
new line.SMT_1142674 bus1=BMT761246B.3,bus2=BMT761260B.3,Phases=1,Linecode=CAB103_3_1_1,Length=0.028172000,Units=km
new line.SMT_1142709 bus1=BMT761260B.3,bus2=BMT2185151B.3,Phases=1,Linecode=CAB103_3_1_1,Length=0.013934000,Units=km
new line.SMT_1142737 bus1=BMT761281B.3,bus2=BMT165372442.3,Phases=1,Linecode=CAB102_3_1_1,Length=0.034727000,Units=km
new line.SMT_1142751 bus1=BMT165372442.3,bus2=BMT165372443.3,Phases=1,Linecode=CAB202_3_1_1,Length=0.080245000,Units=km
new line.SMT_1142919 bus1=BMT171874120.3,bus2=BMT2894986B.3,Phases=1,Linecode=CAB202_3_1_1,Length=0.259152000,Units=km
new line.SMT_1142989 bus1=BMT165372456.3,bus2=BMT1945758B.3,Phases=1,Linecode=CAB202_3_1_1,Length=0.050180000,Units=km
new line.SMT_1143136 bus1=BMT165372470.3,bus2=BMT165372471.3,Phases=1,Linecode=CAB202_3_1_1,Length=0.153065000,Units=km
new line.SMT_10535092 bus1=BMT2869653B.3,bus2=BMT177825235.3,Phases=1,Linecode=CAB202_3_1_1,Length=0.021033000,Units=km
new line.SMT_10535099 bus1=BMT177825235.3,bus2=BMT2869632B.3,Phases=1,Linecode=CAB202_3_1_1,Length=0.190155000,Units=km
new line.SMT_10535148 bus1=BMT177825235.3,bus2=BMT177825236.3,Phases=1,Linecode=CAB103_3_1_1,Length=0.036416000,Units=km
new line.SMT_10703225 bus1=BMT165372764.2,bus2=BMT165372766.2,Phases=1,Linecode=CAB202_3_1_1,Length=0.036250000,Units=km
new line.SMT_10703260 bus1=BMT165372764.2,bus2=BMT6965436B.2,Phases=1,Linecode=CAB202_3_1_1,Length=0.113615000,Units=km
new line.SMT_10703267 bus1=BMT6965436B.2,bus2=BMT165372767.2,Phases=1,Linecode=CAB202_3_1_1,Length=0.098447000,Units=km
new line.SMT_10828602 bus1=BMT2695829B.1.2.3,bus2=BMT165371991.1.2.3,Phases=3,Linecode=CABA06_3_3_3,Length=0.025721000,Units=km
new line.SMT_10828609 bus1=BMT165371991.1.2.3,bus2=BMT2695857B.1.2.3,Phases=3,Linecode=CABA06_3_3_3,Length=0.012375000,Units=km
new line.SMT_10828728 bus1=BMT165371997.1.2.3,bus2=BMT165371998.1.2.3,Phases=3,Linecode=CAB902_4_3_3,Length=0.007284000,Units=km
new line.SMT_11008215 bus1=BMT2097672B.1.2.3,bus2=BMT165371972.1.2.3,Phases=3,Linecode=CABA06_3_3_3,Length=0.010203000,Units=km
new line.SMT_11008222 bus1=BMT2097679B.1.2.3,bus2=BMT165371972.1.2.3,Phases=3,Linecode=CABA06_3_3_3,Length=0.009224000,Units=km
new line.SMT_11008278 bus1=BMT165371977.1.2.3,bus2=BMT165371978.1.2.3,Phases=3,Linecode=CAB902_4_3_3,Length=0.009060000,Units=km
new line.SMT_11369660 bus1=BMT176482881.1.2.3,bus2=BMT2838020B.1.2.3,Phases=3,Linecode=CABA06_3_3_3,Length=0.037177000,Units=km
new line.SMT_11369674 bus1=BMT2838020B.1.2.3,bus2=BMT2838027B.1.2.3,Phases=3,Linecode=CABA06_3_3_3,Length=0.037177000,Units=km
new line.SMT_11369681 bus1=BMT2838027B.1.2.3,bus2=BMT2838006B.1.2.3,Phases=3,Linecode=CABA06_3_3_3,Length=0.036264000,Units=km
new line.SMT_11369695 bus1=BMT2838006B.1.2.3,bus2=BMT176482880.1.2.3,Phases=3,Linecode=CABA06_3_3_3,Length=0.005003000,Units=km
new line.SMT_11369702 bus1=BMT176482880.1.2.3,bus2=BMT2549704B.1.2.3,Phases=3,Linecode=CABA06_3_3_3,Length=0.003164000,Units=km
new line.SMT_11369737 bus1=BMT176482880.1.2.3,bus2=BMT176482882.1.2.3,Phases=3,Linecode=CABA06_3_3_3,Length=0.038095000,Units=km
new line.SMT_11369891 bus1=BMT176482880.1.2.3,bus2=BMT176482788.1.2.3,Phases=3,Linecode=CABA06_3_3_3,Length=0.032324000,Units=km
new line.SMT_11369898 bus1=BMT176482917.1.2.3,bus2=BMT2838279B.1.2.3,Phases=3,Linecode=CABA06_3_3_3,Length=0.037177000,Units=km
new line.SMT_11369905 bus1=BMT2838279B.1.2.3,bus2=BMT2838286B.1.2.3,Phases=3,Linecode=CABA06_3_3_3,Length=0.037177000,Units=km
new line.SMT_11369912 bus1=BMT2838286B.1.2.3,bus2=BMT176482916.1.2.3,Phases=3,Linecode=CABA06_3_3_3,Length=0.043881000,Units=km
new line.SMT_11369919 bus1=BMT176482916.1.2.3,bus2=BMT176482918.1.2.3,Phases=3,Linecode=CABA06_3_3_3,Length=0.026937000,Units=km
new line.SMT_11557155 bus1=BMT168110981.1.2.3,bus2=BMT168110982.1.2.3,Phases=3,Linecode=CABA06_3_3_3,Length=0.030096000,Units=km
new line.SMT_11868648 bus1=BMT2837992B.1.2.3,bus2=BMT176482884.1.2.3,Phases=3,Linecode=CABA06_3_3_3,Length=0.005388000,Units=km
new line.SMT_11868655 bus1=BMT176482884.1.2.3,bus2=BMT176482881.1.2.3,Phases=3,Linecode=CABA06_3_3_3,Length=0.032709000,Units=km
new line.SMT_11868760 bus1=BMT176482884.1.2.3,bus2=BMT3763182B.1.2.3,Phases=3,Linecode=CABA06_3_3_3,Length=0.008606000,Units=km
new line.SMT_11868788 bus1=BMT176482884.1.2.3,bus2=BMT8025838B.1.2.3,Phases=3,Linecode=CABA06_3_3_3,Length=0.021550000,Units=km
new line.SMT_11868795 bus1=BMT8025838B.1.2.3,bus2=BMT8025845B.1.2.3,Phases=3,Linecode=CABA06_3_3_3,Length=0.029559000,Units=km
new line.SMT_11868802 bus1=BMT8025845B.1.2.3,bus2=BMT176482886.1.2.3,Phases=3,Linecode=CABA06_3_3_3,Length=0.030476000,Units=km
new line.SMT_11870888 bus1=BMT170960326.1.2.3,bus2=BMT8028085B.1.2.3,Phases=3,Linecode=CABA06_3_3_3,Length=0.036070000,Units=km
new line.SMT_11870923 bus1=BMT8028085B.1.2.3,bus2=BMT2310045B.1.2.3,Phases=3,Linecode=CABA06_3_3_3,Length=0.020133000,Units=km
new line.SMT_11870937 bus1=BMT2310045B.1.2.3,bus2=BMT170960329.1.2.3,Phases=3,Linecode=CABA06_3_3_3,Length=0.035708000,Units=km
new line.SMT_11870972 bus1=BMT170960329.1.2.3,bus2=BMT8028008B.1.2.3,Phases=3,Linecode=CABA06_3_3_3,Length=0.035525000,Units=km
new line.SMT_11885175 bus1=BMT165372654.3,bus2=BMT165372655.3,Phases=1,Linecode=CAB202_3_1_1,Length=0.077697000,Units=km
new line.SMT_11885182 bus1=BMT165372655.3,bus2=BMT165372656.3,Phases=1,Linecode=CAB202_3_1_1,Length=0.046891000,Units=km
new line.SMT_12164654 bus1=BMT169999574.1.2.3,bus2=BMT8761886B.1.2.3,Phases=3,Linecode=CABA06_3_3_3,Length=0.032216000,Units=km
new line.SMT_12164655 bus1=BMT8761886B.1.2.3,bus2=BMT8761836B.1.2.3,Phases=3,Linecode=CABA06_3_3_3,Length=0.032216000,Units=km
new line.SMT_12164656 bus1=BMT8761836B.1.2.3,bus2=BMT8761840B.1.2.3,Phases=3,Linecode=CABA06_3_3_3,Length=0.019113000,Units=km
new line.SMT_12164657 bus1=BMT8761840B.1.2.3,bus2=BMT8761866B.1.2.3,Phases=3,Linecode=CABA06_3_3_3,Length=0.042971000,Units=km
new line.SMT_12164658 bus1=BMT8761866B.1.2.3,bus2=BMT8761865B.1.2.3,Phases=3,Linecode=CABA06_3_3_3,Length=0.035862000,Units=km
new line.SMT_12164659 bus1=BMT8761865B.1.2.3,bus2=BMT8761862B.1.2.3,Phases=3,Linecode=CABA06_3_3_3,Length=0.042562000,Units=km
new line.SMT_12164660 bus1=BMT8761862B.1.2.3,bus2=BMT169999575.1.2.3,Phases=3,Linecode=CABA06_3_3_3,Length=0.041646000,Units=km
new line.SMT_10641485 bus1=BMT177825224.3,bus2=BMT177825225.3,Phases=1,Linecode=CAB103_3_1_1,Length=0.055826000,Units=km
new line.SMT_10641597 bus1=BMT177825223.3,bus2=BMT177825226.3,Phases=1,Linecode=CAB202_3_1_1,Length=0.190142000,Units=km
new line.SMT_10641625 bus1=BMT177825220.3,bus2=BMT177825222.3,Phases=1,Linecode=CAB202_3_1_1,Length=0.236230000,Units=km
new line.SMT_10641632 bus1=BMT177825222.3,bus2=BMT177825223.3,Phases=1,Linecode=CAB202_3_1_1,Length=0.014324000,Units=km
new line.SMT_10641639 bus1=BMT177825222.3,bus2=BMT177825224.3,Phases=1,Linecode=CAB202_3_1_1,Length=0.249439000,Units=km
new line.SMT_11404744 bus1=BMT172209750.1.2.3,bus2=BMT389707B.1.2.3,Phases=3,Linecode=CABA06_3_3_3,Length=0.033255000,Units=km
new line.SMT_11405066 bus1=BMT389707B.1.2.3,bus2=BMT389714B.1.2.3,Phases=3,Linecode=CABA06_3_3_3,Length=0.034073000,Units=km
new line.SMT_11405073 bus1=BMT389714B.1.2.3,bus2=BMT389721B.1.2.3,Phases=3,Linecode=CABA06_3_3_3,Length=0.033315000,Units=km
new line.SMT_11405101 bus1=BMT389721B.1.2.3,bus2=BMT172209752.1.2.3,Phases=3,Linecode=CABA06_3_3_3,Length=0.036140000,Units=km
new line.SMT_11405423 bus1=BMT172209752.1.2.3,bus2=BMT7609765B.1.2.3,Phases=3,Linecode=CABA06_3_3_3,Length=0.026412000,Units=km
new line.SMT_11405430 bus1=BMT7609765B.1.2.3,bus2=BMT7609744B.1.2.3,Phases=3,Linecode=CABA06_3_3_3,Length=0.020624000,Units=km
new line.SMT_11405437 bus1=BMT7609744B.1.2.3,bus2=BMT7609807B.1.2.3,Phases=3,Linecode=CABA06_3_3_3,Length=0.044572000,Units=km
new line.SMT_11405444 bus1=BMT7609807B.1.2.3,bus2=BMT172209753.1.2.3,Phases=3,Linecode=CABA06_3_3_3,Length=0.021941000,Units=km
new line.SMT_11421215 bus1=BMT170960322.1.2.3,bus2=BMT170960325.1.2.3,Phases=3,Linecode=CABA06_3_3_3,Length=0.014324000,Units=km
new line.SMT_11421222 bus1=BMT170960325.1.2.3,bus2=BMT2276193B.1.2.3,Phases=3,Linecode=CABA06_3_3_3,Length=0.030426000,Units=km
new line.SMT_11421229 bus1=BMT170960325.1.2.3,bus2=BMT2435898B.1.2.3,Phases=3,Linecode=CABA06_3_3_3,Length=0.015304000,Units=km
new line.SMT_11421236 bus1=BMT170960325.1.2.3,bus2=BMT2435905B.1.2.3,Phases=3,Linecode=CABA06_3_3_3,Length=0.010300000,Units=km
new line.SMT_11421243 bus1=BMT2435905B.1.2.3,bus2=BMT2435912B.1.2.3,Phases=3,Linecode=CABA06_3_3_3,Length=0.030476000,Units=km
new line.SMT_11421250 bus1=BMT2435912B.1.2.3,bus2=BMT170960327.1.2.3,Phases=3,Linecode=CABA06_3_3_3,Length=0.033970000,Units=km
new line.SMT_11776850 bus1=BMT2097693B.1.2.3,bus2=BMT7947473B.1.2.3,Phases=3,Linecode=CABA06_3_3_3,Length=0.031414000,Units=km
new line.SMT_11776857 bus1=BMT174106382.1.2.3,bus2=BMT7947473B.1.2.3,Phases=3,Linecode=CABA06_3_3_3,Length=0.014324000,Units=km
new line.SMT_11788743 bus1=BMT170035022.3,bus2=BMT7957777B.3,Phases=1,Linecode=CAB202_3_1_1,Length=0.029440000,Units=km
new line.SMT_11788750 bus1=BMT7957777B.3,bus2=BMT165372541.3,Phases=1,Linecode=CAB202_3_1_1,Length=0.089591000,Units=km
new line.SMT_11788764 bus1=BMT165372543.3,bus2=BMT165372544.3,Phases=1,Linecode=CAB202_3_1_1,Length=0.293842000,Units=km
new line.SMT_12110614 bus1=BMT172209752.1.2.3,bus2=BMT165372254.1.2.3,Phases=3,Linecode=CABA06_3_3_3,Length=0.031904000,Units=km
new line.SMT_12110615 bus1=BMT165372255.1.2.3,bus2=BMT7584936B.1.2.3,Phases=3,Linecode=CABA06_3_3_3,Length=0.029081000,Units=km
new line.SMT_12110618 bus1=BMT7584936B.1.2.3,bus2=BMT165372256.1.2.3,Phases=3,Linecode=CABA06_3_3_3,Length=0.041248000,Units=km
new line.SMT_12110673 bus1=BMT165372256.1.2.3,bus2=BMT165372257.1.2.3,Phases=3,Linecode=CABA06_3_3_3,Length=0.021269000,Units=km
new line.SMT_12110674 bus1=BMT165372256.1.2.3,bus2=BMT8702929B.1.2.3,Phases=3,Linecode=CABA06_3_3_3,Length=0.031158000,Units=km
new line.SMT_12110675 bus1=BMT8702929B.1.2.3,bus2=BMT8702930B.1.2.3,Phases=3,Linecode=CABA06_3_3_3,Length=0.030492000,Units=km
new line.SMT_12110676 bus1=BMT8702930B.1.2.3,bus2=BMT8702933B.1.2.3,Phases=3,Linecode=CABA06_3_3_3,Length=0.029745000,Units=km
new line.SMT_12110677 bus1=BMT8702933B.1.2.3,bus2=BMT8702955B.1.2.3,Phases=3,Linecode=CABA06_3_3_3,Length=0.031158000,Units=km
new line.SMT_12110678 bus1=BMT8702955B.1.2.3,bus2=BMT8702952B.1.2.3,Phases=3,Linecode=CABA06_3_3_3,Length=0.020624000,Units=km
new line.SMT_12110679 bus1=BMT8702952B.1.2.3,bus2=BMT165372258.1.2.3,Phases=3,Linecode=CABA06_3_3_3,Length=0.026919000,Units=km
new line.SMT_12110680 bus1=BMT165372258.1.2.3,bus2=BMT8702974B.1.2.3,Phases=3,Linecode=CABA06_3_3_3,Length=0.016408000,Units=km
new line.SMT_12110681 bus1=BMT8702974B.1.2.3,bus2=BMT8702989B.1.2.3,Phases=3,Linecode=CABA06_3_3_3,Length=0.041053000,Units=km
new line.SMT_12110682 bus1=BMT8702989B.1.2.3,bus2=BMT165372259.1.2.3,Phases=3,Linecode=CABA06_3_3_3,Length=0.024850000,Units=km
new line.SMT_12110683 bus1=BMT165372259.1.2.3,bus2=BMT8703004B.1.2.3,Phases=3,Linecode=CABA06_3_3_3,Length=0.016286000,Units=km
new line.SMT_12110684 bus1=BMT8703004B.1.2.3,bus2=BMT8703018B.1.2.3,Phases=3,Linecode=CABA06_3_3_3,Length=0.043296000,Units=km
new line.SMT_12110685 bus1=BMT8703018B.1.2.3,bus2=BMT8703020B.1.2.3,Phases=3,Linecode=CABA06_3_3_3,Length=0.033435000,Units=km
new line.SMT_12110686 bus1=BMT8703020B.1.2.3,bus2=BMT165372260.1.2.3,Phases=3,Linecode=CABA06_3_3_3,Length=0.034727000,Units=km
new line.SMT_12254418 bus1=BMT175858653.1.2.3,bus2=BMT3771680B.1.2.3,Phases=3,Linecode=CABA06_3_3_3,Length=0.027525000,Units=km
new line.SMT_12254419 bus1=BMT3771680B.1.2.3,bus2=BMT8856105B.1.2.3,Phases=3,Linecode=CABA06_3_3_3,Length=0.026011000,Units=km
new line.SMT_10293515 bus1=BMT6507993B.3,bus2=BMT165372490.3,Phases=1,Linecode=CAB202_3_1_1,Length=0.068737000,Units=km
new line.SMT_10296826 bus1=BMT175233727.1.2.3,bus2=BMT175233728.1.2.3,Phases=3,Linecode=CABA08_3_3_3,Length=0.015659000,Units=km
new line.SMT_11528273 bus1=BMT3466641B.1.2.3,bus2=BMT7739657B.1.2.3,Phases=3,Linecode=CABA06_3_3_3,Length=0.035356000,Units=km
new line.SMT_11528280 bus1=BMT7739657B.1.2.3,bus2=BMT179143821.1.2.3,Phases=3,Linecode=CABA06_3_3_3,Length=0.034943000,Units=km
new line.SMT_11537625 bus1=BMT171327702.1.2.3,bus2=BMT171327703.1.2.3,Phases=3,Linecode=CABA08_3_3_3,Length=0.010775000,Units=km
new line.SMT_11537632 bus1=BMT255776B.1.2.3,bus2=BMT171327703.1.2.3,Phases=3,Linecode=CABA08_3_3_3,Length=0.011185000,Units=km
new line.SMT_11751769 bus1=BMT177001727.1.2.3,bus2=BMT165371446.1.2.3,Phases=3,Linecode=CAB107_3_3_3,Length=0.012088000,Units=km
new line.SMT_11751776 bus1=BMT165371446.1.2.3,bus2=BMT177001729.1.2.3,Phases=3,Linecode=CAB107_3_3_3,Length=0.014324000,Units=km
new line.SMT_11751783 bus1=BMT165371898.1.2.3,bus2=BMT165371899.1.2.3,Phases=3,Linecode=CAB902_4_3_3,Length=0.018035000,Units=km
new line.SMT_11998785 bus1=BMT179143822.1.2.3,bus2=BMT3761243B.1.2.3,Phases=3,Linecode=CABA06_3_3_3,Length=0.039412000,Units=km
new line.SMT_11998792 bus1=BMT3761243B.1.2.3,bus2=BMT7739685B.1.2.3,Phases=3,Linecode=CABA06_3_3_3,Length=0.021941000,Units=km
new line.SMT_11998799 bus1=BMT7739685B.1.2.3,bus2=BMT3761236B.1.2.3,Phases=3,Linecode=CABA06_3_3_3,Length=0.025506000,Units=km
new line.SMT_11998806 bus1=BMT3761236B.1.2.3,bus2=BMT8132392B.1.2.3,Phases=3,Linecode=CABA06_3_3_3,Length=0.026317000,Units=km
new line.SMT_11998813 bus1=BMT8132392B.1.2.3,bus2=BMT179143824.1.2.3,Phases=3,Linecode=CABA06_3_3_3,Length=0.030900000,Units=km
new line.SMT_11998820 bus1=BMT179143824.1.2.3,bus2=BMT8132469B.1.2.3,Phases=3,Linecode=CABA06_3_3_3,Length=0.035370000,Units=km
new line.SMT_11998827 bus1=BMT8132469B.1.2.3,bus2=BMT8132476B.1.2.3,Phases=3,Linecode=CABA06_3_3_3,Length=0.019731000,Units=km
new line.SMT_11998834 bus1=BMT8132476B.1.2.3,bus2=BMT8132497B.1.2.3,Phases=3,Linecode=CABA06_3_3_3,Length=0.045362000,Units=km
new line.SMT_11998841 bus1=BMT8132497B.1.2.3,bus2=BMT8132504B.1.2.3,Phases=3,Linecode=CABA06_3_3_3,Length=0.040378000,Units=km
new line.SMT_11998848 bus1=BMT8132504B.1.2.3,bus2=BMT179143831.1.2.3,Phases=3,Linecode=CABA06_3_3_3,Length=0.030492000,Units=km
new line.SMT_12002327 bus1=BMT165372235.1.2.3,bus2=BMT2277600B.1.2.3,Phases=3,Linecode=CABA06_3_3_3,Length=0.026183000,Units=km
new line.SMT_12002334 bus1=BMT2277600B.1.2.3,bus2=BMT2277537B.1.2.3,Phases=3,Linecode=CABA06_3_3_3,Length=0.024218000,Units=km
new line.SMT_12002341 bus1=BMT2277537B.1.2.3,bus2=BMT165372238.1.2.3,Phases=3,Linecode=CABA06_3_3_3,Length=0.024709000,Units=km
new line.SMT_12002348 bus1=BMT165372241.1.2.3,bus2=BMT165372242.1.2.3,Phases=3,Linecode=CABA06_3_3_3,Length=0.020527000,Units=km
new line.SMT_12002362 bus1=BMT165372242.1.2.3,bus2=BMT8135801B.1.2.3,Phases=3,Linecode=CABA06_3_3_3,Length=0.036140000,Units=km
new line.SMT_12002369 bus1=BMT8135801B.1.2.3,bus2=BMT165372243.1.2.3,Phases=3,Linecode=CABA06_3_3_3,Length=0.034727000,Units=km
new line.SMT_12002390 bus1=BMT165372242.1.2.3,bus2=BMT8135563B.1.2.3,Phases=3,Linecode=CABA06_3_3_3,Length=0.041886000,Units=km
new line.SMT_12002397 bus1=BMT8135563B.1.2.3,bus2=BMT165372244.1.2.3,Phases=3,Linecode=CABA06_3_3_3,Length=0.041790000,Units=km
...
