2024_89_CemigReconfigurationCases/1_AlimsCemig/NVSU22/NVSU22Transformadores.dss
new transformer.TRF_106550A Phases=1,Windings=3,Buses=[BMT172206914.2 BBT505536.1.0 BBT505536.0.2],Conns=[wye wye wye],kvs=[7.967 0.12 0.12],kvas=[35.000000000 35.000000000 35.000000000],Taps=[1,1.000000000,1.000000000],XHL=2.060000000,XHT=2.060000000,XLT=1.648000000,%loadloss=1.410000000,%noloadloss=0.385000000
new transformer.TRF_106592A Phases=1,Windings=3,Buses=[BMT173807209.2 BBT505620.1.0 BBT505620.0.2],Conns=[wye wye wye],kvs=[7.967 0.12 0.12],kvas=[10.000000000 10.000000000 10.000000000],Taps=[1,1.000000000,1.000000000],XHL=1.560000000,XHT=1.560000000,XLT=1.248000000,%loadloss=1.950000000,%noloadloss=0.500000000
new transformer.TRF_1225975A Phases=1,Windings=3,Buses=[BMT173315858.3 BBT49928209.1.0 BBT49928209.0.2],Conns=[wye wye wye],kvs=[7.967 0.12 0.12],kvas=[15.000000000 15.000000000 15.000000000],Taps=[1,1.000000000,1.000000000],XHL=1.770000000,XHT=1.770000000,XLT=1.416000000,%loadloss=1.770000000,%noloadloss=0.433000000
new transformer.TRF_1225982A Phases=1,Windings=3,Buses=[BMT173315857.3 BBT49929287.1.0 BBT49929287.0.2],Conns=[wye wye wye],kvs=[7.967 0.12 0.12],kvas=[15.000000000 15.000000000 15.000000000],Taps=[1,1.000000000,1.000000000],XHL=1.770000000,XHT=1.770000000,XLT=1.416000000,%loadloss=1.770000000,%noloadloss=0.433000000
new transformer.TRF_1285097A Phases=1,Windings=3,Buses=[BMT171019481.2 BBT88803605.1.0 BBT88803605.0.2],Conns=[wye wye wye],kvs=[7.967 0.12 0.12],kvas=[5.000000000 5.000000000 5.000000000],Taps=[1,1.000000000,1.000000000],XHL=1.360000000,XHT=1.360000000,XLT=1.088000000,%loadloss=2.100000000,%noloadloss=0.700000000
new transformer.TRF_1285125A Phases=1,Windings=3,Buses=[BMT171019482.2 BBT88803689.1.0 BBT88803689.0.2],Conns=[wye wye wye],kvs=[7.967 0.12 0.12],kvas=[5.000000000 5.000000000 5.000000000],Taps=[1,1.000000000,1.000000000],XHL=1.360000000,XHT=1.360000000,XLT=1.088000000,%loadloss=2.100000000,%noloadloss=0.700000000
new transformer.TRF_1318564 Phases=3,Windings=2,Buses=[BMT172209753.1.2.3 BBT92467916.1.2.3.0],Conns=[delta wye],kvs=[13.800000000 0.22],kvas=[75.000000000 75.000000000],Taps=[1,1.000000000],XHL=3.720000000,%loadloss=1.470000000,%noloadloss=0.393000000
new transformer.TRF_1373304 Phases=3,Windings=2,Buses=[BMT176482920.1.2.3 BBT133567758.1.2.3.0],Conns=[delta wye],kvs=[13.800000000 0.22],kvas=[45.000000000 45.000000000],Taps=[1,1.000000000],XHL=3.640000000,%loadloss=1.670000000,%noloadloss=0.433000000
new transformer.TRF_1438533A Phases=1,Windings=3,Buses=[BMT177825253.3 BBT158853077.1.0 BBT158853077.0.2],Conns=[wye wye wye],kvs=[7.967 0.12 0.12],kvas=[10.000000000 10.000000000 10.000000000],Taps=[1,1.000000000,1.000000000],XHL=1.560000000,XHT=1.560000000,XLT=1.248000000,%loadloss=1.950000000,%noloadloss=0.500000000
new transformer.TRF_1445098 Phases=3,Windings=2,Buses=[BMT168804622.1.2.3 BBT160321943.1.2.3.0],Conns=[delta wye],kvs=[13.800000000 0.22],kvas=[75.000000000 75.000000000],Taps=[1,1.000000000],XHL=3.720000000,%loadloss=1.470000000,%noloadloss=0.393000000
new transformer.TRF_1445099 Phases=3,Windings=2,Buses=[BMT168804623.1.2.3 BBT160322149.1.2.3.0],Conns=[delta wye],kvs=[13.800000000 0.22],kvas=[75.000000000 75.000000000],Taps=[1,1.000000000],XHL=3.720000000,%loadloss=1.470000000,%noloadloss=0.393000000
new transformer.TRF_1445100 Phases=3,Windings=2,Buses=[BMT168804620.1.2.3 BBT160322440.1.2.3.0],Conns=[delta wye],kvs=[13.800000000 0.22],kvas=[75.000000000 75.000000000],Taps=[1,1.000000000],XHL=3.720000000,%loadloss=1.470000000,%noloadloss=0.393000000
new transformer.TRF_1445101 Phases=3,Windings=2,Buses=[BMT168804619.1.2.3 BBT160322568.1.2.3.0],Conns=[delta wye],kvs=[13.800000000 0.22],kvas=[75.000000000 75.000000000],Taps=[1,1.000000000],XHL=3.720000000,%loadloss=1.470000000,%noloadloss=0.393000000
new transformer.TRF_1445106 Phases=3,Windings=2,Buses=[BMT165372044.1.2.3 BBT160323490.1.2.3.0],Conns=[delta wye],kvs=[13.800000000 0.22],kvas=[45.000000000 45.000000000],Taps=[1,1.000000000],XHL=3.640000000,%loadloss=1.670000000,%noloadloss=0.433000000
new transformer.TRF_1445107 Phases=3,Windings=2,Buses=[BMT165372045.1.2.3 BBT160323661.1.2.3.0],Conns=[delta wye],kvs=[13.800000000 0.22],kvas=[45.000000000 45.000000000],Taps=[1,1.000000000],XHL=3.640000000,%loadloss=1.670000000,%noloadloss=0.433000000
new transformer.TRF_1445109 Phases=3,Windings=2,Buses=[BMT168806019.1.2.3 BBT160323697.1.2.3.0],Conns=[delta wye],kvs=[13.800000000 0.22],kvas=[45.000000000 45.000000000],Taps=[1,1.000000000],XHL=3.640000000,%loadloss=1.670000000,%noloadloss=0.433000000
new transformer.TRF_1445110 Phases=3,Windings=2,Buses=[BMT165372042.1.2.3 BBT160323871.1.2.3.0],Conns=[delta wye],kvs=[13.800000000 0.22],kvas=[75.000000000 75.000000000],Taps=[1,1.000000000],XHL=3.720000000,%loadloss=1.470000000,%noloadloss=0.393000000
new transformer.TRF_1445111 Phases=3,Windings=2,Buses=[BMT168808366.1.2.3 BBT160324011.1.2.3.0],Conns=[delta wye],kvs=[13.800000000 0.22],kvas=[45.000000000 45.000000000],Taps=[1,1.000000000],XHL=3.640000000,%loadloss=1.670000000,%noloadloss=0.433000000
new transformer.TRF_1445112 Phases=3,Windings=2,Buses=[BMT168882534.1.2.3 BBT160324137.1.2.3.0],Conns=[delta wye],kvs=[13.800000000 0.22],kvas=[45.000000000 45.000000000],Taps=[1,1.000000000],XHL=3.640000000,%loadloss=1.670000000,%noloadloss=0.433000000
new transformer.TRF_1445114 Phases=3,Windings=2,Buses=[BMT168882459.1.2.3 BBT160324301.1.2.3.0],Conns=[delta wye],kvs=[13.800000000 0.22],kvas=[75.000000000 75.000000000],Taps=[1,1.000000000],XHL=3.720000000,%loadloss=1.470000000,%noloadloss=0.393000000
new transformer.TRF_1445116 Phases=3,Windings=2,Buses=[BMT168882460.1.2.3 BBT160324662.1.2.3.0],Conns=[delta wye],kvs=[13.800000000 0.22],kvas=[75.000000000 75.000000000],Taps=[1,1.000000000],XHL=3.720000000,%loadloss=1.470000000,%noloadloss=0.393000000
new transformer.TRF_1445117 Phases=3,Windings=2,Buses=[BMT168882458.1.2.3 BBT160324863.1.2.3.0],Conns=[delta wye],kvs=[13.800000000 0.22],kvas=[45.000000000 45.000000000],Taps=[1,1.000000000],XHL=3.640000000,%loadloss=1.670000000,%noloadloss=0.433000000
new transformer.TRF_1445118 Phases=3,Windings=2,Buses=[BMT168882495.1.2.3 BBT160324915.1.2.3.0],Conns=[delta wye],kvs=[13.800000000 0.22],kvas=[45.000000000 45.000000000],Taps=[1,1.000000000],XHL=3.640000000,%loadloss=1.670000000,%noloadloss=0.433000000
new transformer.TRF_1139791A Phases=1,Windings=3,Buses=[BMT170000084.1 BBT31350867.1.0 BBT31350867.0.2],Conns=[wye wye wye],kvs=[7.967 0.12 0.12],kvas=[35.000000000 35.000000000 35.000000000],Taps=[1,1.000000000,1.000000000],XHL=2.060000000,XHT=2.060000000,XLT=1.648000000,%loadloss=1.410000000,%noloadloss=0.385000000
new transformer.TRF_1139798A Phases=1,Windings=3,Buses=[BMT170000083.1 BBT31351070.1.0 BBT31351070.0.2],Conns=[wye wye wye],kvs=[7.967 0.12 0.12],kvas=[35.000000000 35.000000000 35.000000000],Taps=[1,1.000000000,1.000000000],XHL=2.060000000,XHT=2.060000000,XLT=1.648000000,%loadloss=1.410000000,%noloadloss=0.385000000
new transformer.TRF_1139805A Phases=1,Windings=3,Buses=[BMT170001336.1 BBT31351252.1.0 BBT31351252.0.2],Conns=[wye wye wye],kvs=[7.967 0.12 0.12],kvas=[35.000000000 35.000000000 35.000000000],Taps=[1,1.000000000,1.000000000],XHL=2.060000000,XHT=2.060000000,XLT=1.648000000,%loadloss=1.410000000,%noloadloss=0.385000000
new transformer.TRF_1189064A Phases=1,Windings=3,Buses=[BMT171874121.3 BBT39603734.1.0 BBT39603734.0.2],Conns=[wye wye wye],kvs=[7.967 0.12 0.12],kvas=[5.000000000 5.000000000 5.000000000],Taps=[1,1.000000000,1.000000000],XHL=1.360000000,XHT=1.360000000,XLT=1.088000000,%loadloss=2.100000000,%noloadloss=0.700000000
new transformer.TRF_1189106A Phases=1,Windings=3,Buses=[BMT171874118.3 BBT39612183.1.0 BBT39612183.0.2],Conns=[wye wye wye],kvs=[7.967 0.12 0.12],kvas=[5.000000000 5.000000000 5.000000000],Taps=[1,1.000000000,1.000000000],XHL=1.360000000,XHT=1.360000000,XLT=1.088000000,%loadloss=2.100000000,%noloadloss=0.700000000
new transformer.TRF_1212451A Phases=1,Windings=3,Buses=[BMT165372663.3 BBT45571640.1.0 BBT45571640.0.2],Conns=[wye wye wye],kvs=[7.967 0.12 0.12],kvas=[15.000000000 15.000000000 15.000000000],Taps=[1,1.000000000,1.000000000],XHL=1.770000000,XHT=1.770000000,XLT=1.416000000,%loadloss=1.770000000,%noloadloss=0.433000000
new transformer.TRF_1212577A Phases=1,Windings=3,Buses=[BMT165372396.3 BBT45607270.1.0 BBT45607270.0.2],Conns=[wye wye wye],kvs=[7.967 0.12 0.12],kvas=[5.000000000 5.000000000 5.000000000],Taps=[1,1.000000000,1.000000000],XHL=1.360000000,XHT=1.360000000,XLT=1.088000000,%loadloss=2.100000000,%noloadloss=0.700000000
new transformer.TRF_1212647A Phases=1,Windings=3,Buses=[BMT165372376.2 BBT45619303.1.0 BBT45619303.0.2],Conns=[wye wye wye],kvs=[7.967 0.12 0.12],kvas=[15.000000000 15.000000000 15.000000000],Taps=[1,1.000000000,1.000000000],XHL=1.770000000,XHT=1.770000000,XLT=1.416000000,%loadloss=1.770000000,%noloadloss=0.433000000
new transformer.TRF_1334979 Phases=3,Windings=2,Buses=[BMT171327703.1.2.3 BBT104886308.1.2.3.0],Conns=[delta wye],kvs=[13.800000000 0.22],kvas=[150.000000000 150.000000000],Taps=[1,1.000000000],XHL=3.810000000,%loadloss=1.230000000,%noloadloss=0.323000000
new transformer.TRF_1398736 Phases=3,Windings=2,Buses=[BMT168798679.1.2.3 BBT150018674.1.2.3.0],Conns=[delta wye],kvs=[13.800000000 0.22],kvas=[45.000000000 45.000000000],Taps=[1,1.000000000],XHL=3.640000000,%loadloss=1.670000000,%noloadloss=0.433000000
new transformer.TRF_1398741 Phases=3,Windings=2,Buses=[BMT165372863.1.2.3 BBT150018937.1.2.3.0],Conns=[delta wye],kvs=[13.800000000 0.22],kvas=[45.000000000 45.000000000],Taps=[1,1.000000000],XHL=3.640000000,%loadloss=1.670000000,%noloadloss=0.433000000
new transformer.TRF_1398748 Phases=3,Windings=2,Buses=[BMT165372864.1.2.3 BBT150019613.1.2.3.0],Conns=[delta wye],kvs=[13.800000000 0.22],kvas=[45.000000000 45.000000000],Taps=[1,1.000000000],XHL=3.640000000,%loadloss=1.670000000,%noloadloss=0.433000000
new transformer.TRF_1398750 Phases=3,Windings=2,Buses=[BMT168802839.1.2.3 BBT150019710.1.2.3.0],Conns=[delta wye],kvs=[13.800000000 0.22],kvas=[45.000000000 45.000000000],Taps=[1,1.000000000],XHL=3.640000000,%loadloss=1.670000000,%noloadloss=0.433000000
new transformer.TRF_1398767 Phases=3,Windings=2,Buses=[BMT169999576.1.2.3 BBT150025293.1.2.3.0],Conns=[delta wye],kvs=[13.800000000 0.22],kvas=[75.000000000 75.000000000],Taps=[1,1.000000000],XHL=3.720000000,%loadloss=1.470000000,%noloadloss=0.393000000
new transformer.TRF_1398772 Phases=3,Windings=2,Buses=[BMT169999598.1.2.3 BBT150025487.1.2.3.0],Conns=[delta wye],kvs=[13.800000000 0.22],kvas=[75.000000000 75.000000000],Taps=[1,1.000000000],XHL=3.720000000,%loadloss=1.470000000,%noloadloss=0.393000000
new transformer.TRF_1398774 Phases=3,Windings=2,Buses=[BMT169999599.1.2.3 BBT150026013.1.2.3.0],Conns=[delta wye],kvs=[13.800000000 0.22],kvas=[45.000000000 45.000000000],Taps=[1,1.000000000],XHL=3.640000000,%loadloss=1.670000000,%noloadloss=0.433000000
new transformer.TRF_1425778A Phases=1,Windings=3,Buses=[BMT165372649.3 BBT156295433.1.0 BBT156295433.0.2],Conns=[wye wye wye],kvs=[7.967 0.12 0.12],kvas=[15.000000000 15.000000000 15.000000000],Taps=[1,1.000000000,1.000000000],XHL=1.770000000,XHT=1.770000000,XLT=1.416000000,%loadloss=1.770000000,%noloadloss=0.433000000
new transformer.TRF_1432621A Phases=1,Windings=3,Buses=[BMT171867031.2 BBT157733104.1.0 BBT157733104.0.2],Conns=[wye wye wye],kvs=[7.967 0.12 0.12],kvas=[10.000000000 10.000000000 10.000000000],Taps=[1,1.000000000,1.000000000],XHL=1.560000000,XHT=1.560000000,XLT=1.248000000,%loadloss=1.950000000,%noloadloss=0.500000000
new transformer.TRF_1432622A Phases=1,Windings=3,Buses=[BMT171867033.2 BBT157733188.1.0 BBT157733188.0.2],Conns=[wye wye wye],kvs=[7.967 0.12 0.12],kvas=[10.000000000 10.000000000 10.000000000],Taps=[1,1.000000000,1.000000000],XHL=1.560000000,XHT=1.560000000,XLT=1.248000000,%loadloss=1.950000000,%noloadloss=0.500000000
new transformer.TRF_1450141 Phases=3,Windings=2,Buses=[BMT165372384.1.2.3 BBT161690465.1.2.3.0],Conns=[delta wye],kvs=[13.800000000 0.22],kvas=[75.000000000 75.000000000],Taps=[1,1.000000000],XHL=3.720000000,%loadloss=1.470000000,%noloadloss=0.393000000
new transformer.TRF_1450142 Phases=3,Windings=2,Buses=[BMT165372383.1.2.3 BBT161690540.1.2.3.0],Conns=[delta wye],kvs=[13.800000000 0.22],kvas=[45.000000000 45.000000000],Taps=[1,1.000000000],XHL=3.640000000,%loadloss=1.670000000,%noloadloss=0.433000000
new transformer.TRF_1450164A Phases=1,Windings=3,Buses=[BMT165372724.2 BBT161694599.1.0 BBT161694599.0.2],Conns=[wye wye wye],kvs=[7.967 0.12 0.12],kvas=[10.000000000 10.000000000 10.000000000],Taps=[1,1.000000000,1.000000000],XHL=1.560000000,XHT=1.560000000,XLT=1.248000000,%loadloss=1.950000000,%noloadloss=0.500000000
new transformer.TRF_1450196 Phases=3,Windings=2,Buses=[BMT165372386.1.2.3 BBT161700370.1.2.3.0],Conns=[delta wye],kvs=[13.800000000 0.22],kvas=[45.000000000 45.000000000],Taps=[1,1.000000000],XHL=3.640000000,%loadloss=1.670000000,%noloadloss=0.433000000
new transformer.TRF_1450274 Phases=3,Windings=2,Buses=[BMT176115802.1.2.3 BBT161719888.1.2.3.0],Conns=[delta wye],kvs=[13.800000000 0.22],kvas=[75.000000000 75.000000000],Taps=[1,1.000000000],XHL=3.720000000,%loadloss=1.470000000,%noloadloss=0.393000000
new transformer.TRF_1090007A Phases=1,Windings=3,Buses=[BMT165372791.2 BBT21011286.1.0 BBT21011286.0.2],Conns=[wye wye wye],kvs=[7.967 0.12 0.12],kvas=[10.000000000 10.000000000 10.000000000],Taps=[1,1.000000000,1.000000000],XHL=1.560000000,XHT=1.560000000,XLT=1.248000000,%loadloss=1.950000000,%noloadloss=0.500000000
new transformer.TRF_1221712A Phases=1,Windings=3,Buses=[BMT165372549.3 BBT48165665.1.0 BBT48165665.0.2],Conns=[wye wye wye],kvs=[7.967 0.12 0.12],kvas=[15.000000000 15.000000000 15.000000000],Taps=[1,1.000000000,1.000000000],XHL=1.770000000,XHT=1.770000000,XLT=1.416000000,%loadloss=1.770000000,%noloadloss=0.433000000
new transformer.TRF_1324094 Phases=3,Windings=2,Buses=[BMT168479807.1.2.3 BBT95392068.1.2.3.0],Conns=[delta wye],kvs=[13.800000000 0.22],kvas=[45.000000000 45.000000000],Taps=[1,1.000000000],XHL=3.640000000,%loadloss=1.670000000,%noloadloss=0.433000000
new transformer.TRF_1375110 Phases=3,Windings=2,Buses=[BMT179143831.1.2.3 BBT134730276.1.2.3.0],Conns=[delta wye],kvs=[13.800000000 0.22],kvas=[45.000000000 45.000000000],Taps=[1,1.000000000],XHL=3.640000000,%loadloss=1.670000000,%noloadloss=0.433000000
new transformer.TRF_1375285 Phases=3,Windings=2,Buses=[BMT165372243.1.2.3 BBT135024045.1.2.3.0],Conns=[delta wye],kvs=[13.800000000 0.22],kvas=[45.000000000 45.000000000],Taps=[1,1.000000000],XHL=3.640000000,%loadloss=1.670000000,%noloadloss=0.433000000
new transformer.TRF_1375292 Phases=3,Windings=2,Buses=[BMT165372244.1.2.3 BBT135027433.1.2.3.0],Conns=[delta wye],kvs=[13.800000000 0.22],kvas=[75.000000000 75.000000000],Taps=[1,1.000000000],XHL=3.720000000,%loadloss=1.470000000,%noloadloss=0.393000000
new transformer.TRF_1375299 Phases=3,Windings=2,Buses=[BMT165372245.1.2.3 BBT135033201.1.2.3.0],Conns=[delta wye],kvs=[13.800000000 0.22],kvas=[45.000000000 45.000000000],Taps=[1,1.000000000],XHL=3.640000000,%loadloss=1.670000000,%noloadloss=0.433000000
new transformer.TRF_1375320 Phases=3,Windings=2,Buses=[BMT165372246.1.2.3 BBT135036680.1.2.3.0],Conns=[delta wye],kvs=[13.800000000 0.22],kvas=[75.000000000 75.000000000],Taps=[1,1.000000000],XHL=3.720000000,%loadloss=1.470000000,%noloadloss=0.393000000
new transformer.TRF_1376083A Phases=1,Windings=3,Buses=[BMT165372628.3 BBT135467628.1.0 BBT135467628.0.2],Conns=[wye wye wye],kvs=[7.967 0.12 0.12],kvas=[5.000000000 5.000000000 5.000000000],Taps=[1,1.000000000,1.000000000],XHL=1.360000000,XHT=1.360000000,XLT=1.088000000,%loadloss=2.100000000,%noloadloss=0.700000000
new transformer.TRF_1391824 Phases=3,Windings=2,Buses=[BMT174106387.1.2.3 BBT148490726.1.2.3.0],Conns=[delta wye],kvs=[13.800000000 0.22],kvas=[75.000000000 75.000000000],Taps=[1,1.000000000],XHL=3.720000000,%loadloss=1.470000000,%noloadloss=0.393000000
new transformer.TRF_1431511 Phases=3,Windings=2,Buses=[BMT165371937.1.2.3 BBT157548807.1.2.3.0],Conns=[delta wye],kvs=[13.800000000 0.22],kvas=[75.000000000 75.000000000],Taps=[1,1.000000000],XHL=3.720000000,%loadloss=1.470000000,%noloadloss=0.393000000
new transformer.TRF_1431521 Phases=3,Windings=2,Buses=[BMT167774571.1.2.3 BBT157550794.1.2.3.0],Conns=[delta wye],kvs=[13.800000000 0.22],kvas=[75.000000000 75.000000000],Taps=[1,1.000000000],XHL=3.720000000,%loadloss=1.470000000,%noloadloss=0.393000000
new transformer.TRF_1431599 Phases=3,Windings=2,Buses=[BMT178415726.1.2.3 BBT157562576.1.2.3.0],Conns=[delta wye],kvs=[13.800000000 0.22],kvas=[75.000000000 75.000000000],Taps=[1,1.000000000],XHL=3.720000000,%loadloss=1.470000000,%noloadloss=0.393000000
new transformer.TRF_1436762A Phases=1,Windings=3,Buses=[BMT171874119.3 BBT158507296.1.0 BBT158507296.0.2],Conns=[wye wye wye],kvs=[7.967 0.12 0.12],kvas=[10.000000000 10.000000000 10.000000000],Taps=[1,1.000000000,1.000000000],XHL=1.560000000,XHT=1.560000000,XLT=1.248000000,%loadloss=1.950000000,%noloadloss=0.500000000
new transformer.TRF_1464909 Phases=3,Windings=2,Buses=[BMT179144092.1.2.3 BBT165324774.1.2.3.0],Conns=[delta wye],kvs=[13.800000000 0.22],kvas=[45.000000000 45.000000000],Taps=[1,1.000000000],XHL=3.640000000,%loadloss=1.670000000,%noloadloss=0.433000000
new transformer.TRF_1464910 Phases=3,Windings=2,Buses=[BMT179770874.1.2.3 BBT165324806.1.2.3.0],Conns=[delta wye],kvs=[13.800000000 0.22],kvas=[45.000000000 45.000000000],Taps=[1,1.000000000],XHL=3.640000000,%loadloss=1.670000000,%noloadloss=0.433000000
new transformer.TRF_1464911 Phases=3,Windings=2,Buses=[BMT179770876.1.2.3 BBT165324846.1.2.3.0],Conns=[delta wye],kvs=[13.800000000 0.22],kvas=[45.000000000 45.000000000],Taps=[1,1.000000000],XHL=3.640000000,%loadloss=1.670000000,%noloadloss=0.433000000
new transformer.TRF_1464912 Phases=3,Windings=2,Buses=[BMT179770878.1.2.3 BBT165324866.1.2.3.0],Conns=[delta wye],kvs=[13.800000000 0.22],kvas=[45.000000000 45.000000000],Taps=[1,1.000000000],XHL=3.640000000,%loadloss=1.670000000,%noloadloss=0.433000000
new transformer.TRF_1464914 Phases=3,Windings=2,Buses=[BMT179770888.1.2.3 BBT165324916.1.2.3.0],Conns=[delta wye],kvs=[13.800000000 0.22],kvas=[45.000000000 45.000000000],Taps=[1,1.000000000],XHL=3.640000000,%loadloss=1.670000000,%noloadloss=0.433000000
new transformer.TRF_1464918 Phases=3,Windings=2,Buses=[BMT165372963.1.2.3 BBT165325114.1.2.3.0],Conns=[delta wye],kvs=[13.800000000 0.22],kvas=[75.000000000 75.000000000],Taps=[1,1.000000000],XHL=3.720000000,%loadloss=1.470000000,%noloadloss=0.393000000
new transformer.TRF_1464919 Phases=3,Windings=2,Buses=[BMT179770877.1.2.3 BBT165325209.1.2.3.0],Conns=[delta wye],kvs=[13.800000000 0.22],kvas=[45.000000000 45.000000000],Taps=[1,1.000000000],XHL=3.640000000,%loadloss=1.670000000,%noloadloss=0.433000000
new transformer.TRF_1464920 Phases=3,Windings=2,Buses=[BMT179770881.1.2.3 BBT165325362.1.2.3.0],Conns=[delta wye],kvs=[13.800000000 0.22],kvas=[75.000000000 75.000000000],Taps=[1,1.000000000],XHL=3.720000000,%loadloss=1.470000000,%noloadloss=0.393000000
new transformer.TRF_1464921 Phases=3,Windings=2,Buses=[BMT165372965.1.2.3 BBT165325690.1.2.3.0],Conns=[delta wye],kvs=[13.800000000 0.22],kvas=[75.000000000 75.000000000],Taps=[1,1.000000000],XHL=3.720000000,%loadloss=1.470000000,%noloadloss=0.393000000
new transformer.TRF_1464922 Phases=3,Windings=2,Buses=[BMT165372967.1.2.3 BBT165325735.1.2.3.0],Conns=[delta wye],kvs=[13.800000000 0.22],kvas=[75.000000000 75.000000000],Taps=[1,1.000000000],XHL=3.720000000,%loadloss=1.470000000,%noloadloss=0.393000000
new transformer.TRF_1464923 Phases=3,Windings=2,Buses=[BMT165372966.1.2.3 BBT165325891.1.2.3.0],Conns=[delta wye],kvs=[13.800000000 0.22],kvas=[75.000000000 75.000000000],Taps=[1,1.000000000],XHL=3.720000000,%loadloss=1.470000000,%noloadloss=0.393000000
new transformer.TRF_1464925 Phases=3,Windings=2,Buses=[BMT179770884.1.2.3 BBT165326024.1.2.3.0],Conns=[delta wye],kvs=[13.800000000 0.22],kvas=[75.000000000 75.000000000],Taps=[1,1.000000000],XHL=3.720000000,%loadloss=1.470000000,%noloadloss=0.393000000
new transformer.TRF_1464926 Phases=3,Windings=2,Buses=[BMT179770886.1.2.3 BBT165326085.1.2.3.0],Conns=[delta wye],kvs=[13.800000000 0.22],kvas=[45.000000000 45.000000000],Taps=[1,1.000000000],XHL=3.640000000,%loadloss=1.670000000,%noloadloss=0.433000000
new transformer.TRF_1464927 Phases=3,Windings=2,Buses=[BMT179770885.1.2.3 BBT165326120.1.2.3.0],Conns=[delta wye],kvs=[13.800000000 0.22],kvas=[75.000000000 75.000000000],Taps=[1,1.000000000],XHL=3.720000000,%loadloss=1.470000000,%noloadloss=0.393000000
new transformer.TRF_1464928 Phases=3,Windings=2,Buses=[BMT179770887.1.2.3 BBT165326323.1.2.3.0],Conns=[delta wye],kvs=[13.800000000 0.22],kvas=[45.000000000 45.000000000],Taps=[1,1.000000000],XHL=3.640000000,%loadloss=1.670000000,%noloadloss=0.433000000
new transformer.TRF_1489631 Phases=3,Windings=2,Buses=[BMT177001728.1.2.3 BBT169853925.1.2.3.0],Conns=[delta wye],kvs=[13.800000000 0.22],kvas=[300.000000000 300.000000000],Taps=[1,1.000000000],XHL=4.880000000,%loadloss=1.080000000,%noloadloss=0.270000000
new transformer.TRF_1494882 Phases=3,Windings=2,Buses=[BMT170960331.1.2.3 BBT170960286.1.2.3.0],Conns=[delta wye],kvs=[13.800000000 0.22],kvas=[75.000000000 75.000000000],Taps=[1,1.000000000],XHL=3.720000000,%loadloss=1.470000000,%noloadloss=0.393000000
new transformer.TRF_1500569 Phases=3,Windings=2,Buses=[BMT172133465.1.2.3 BBT172110866.1.2.3.0],Conns=[delta wye],kvs=[13.800000000 0.22],kvas=[45.000000000 45.000000000],Taps=[1,1.000000000],XHL=3.640000000,%loadloss=1.670000000,%noloadloss=0.433000000
new transformer.TRF_1510193 Phases=3,Windings=2,Buses=[BMT180145785.1.2.3 BBT174236102.1.2.3.0],Conns=[delta wye],kvs=[13.800000000 0.22],kvas=[75.000000000 75.000000000],Taps=[1,1.000000000],XHL=3.720000000,%loadloss=1.470000000,%noloadloss=0.393000000
new transformer.TRF_1510199 Phases=3,Windings=2,Buses=[BMT180145781.1.2.3 BBT174236271.1.2.3.0],Conns=[delta wye],kvs=[13.800000000 0.22],kvas=[75.000000000 75.000000000],Taps=[1,1.000000000],XHL=3.720000000,%loadloss=1.470000000,%noloadloss=0.393000000
new transformer.TRF_1510201 Phases=3,Windings=2,Buses=[BMT180145783.1.2.3 BBT174236456.1.2.3.0],Conns=[delta wye],kvs=[13.800000000 0.22],kvas=[75.000000000 75.000000000],Taps=[1,1.000000000],XHL=3.720000000,%loadloss=1.470000000,%noloadloss=0.393000000
new transformer.TRF_1510203 Phases=3,Windings=2,Buses=[BMT180145784.1.2.3 BBT174236538.1.2.3.0],Conns=[delta wye],kvs=[13.800000000 0.22],kvas=[75.000000000 75.000000000],Taps=[1,1.000000000],XHL=3.720000000,%loadloss=1.470000000,%noloadloss=0.393000000
new transformer.TRF_1510219 Phases=3,Windings=2,Buses=[BMT180142598.1.2.3 BBT174237941.1.2.3.0],Conns=[delta wye],kvs=[13.800000000 0.22],kvas=[45.000000000 45.000000000],Taps=[1,1.000000000],XHL=3.640000000,%loadloss=1.670000000,%noloadloss=0.433000000
new transformer.TRF_1510221 Phases=3,Windings=2,Buses=[BMT180142597.1.2.3 BBT174238120.1.2.3.0],Conns=[delta wye],kvs=[13.800000000 0.22],kvas=[75.000000000 75.000000000],Taps=[1,1.000000000],XHL=3.720000000,%loadloss=1.470000000,%noloadloss=0.393000000
new transformer.TRF_1510222 Phases=3,Windings=2,Buses=[BMT180135756.1.2.3 BBT174238257.1.2.3.0],Conns=[delta wye],kvs=[13.800000000 0.22],kvas=[75.000000000 75.000000000],Taps=[1,1.000000000],XHL=3.720000000,%loadloss=1.470000000,%noloadloss=0.393000000
new transformer.TRF_1510223 Phases=3,Windings=2,Buses=[BMT180135755.1.2.3 BBT174238297.1.2.3.0],Conns=[delta wye],kvs=[13.800000000 0.22],kvas=[75.000000000 75.000000000],Taps=[1,1.000000000],XHL=3.720000000,%loadloss=1.470000000,%noloadloss=0.393000000
new transformer.TRF_1510227 Phases=3,Windings=2,Buses=[BMT180124213.1.2.3 BBT174238931.1.2.3.0],Conns=[delta wye],kvs=[13.800000000 0.22],kvas=[45.000000000 45.000000000],Taps=[1,1.000000000],XHL=3.640000000,%loadloss=1.670000000,%noloadloss=0.433000000
new transformer.TRF_1510228 Phases=3,Windings=2,Buses=[BMT180145604.1.2.3 BBT174239060.1.2.3.0],Conns=[delta wye],kvs=[13.800000000 0.22],kvas=[75.000000000 75.000000000],Taps=[1,1.000000000],XHL=3.720000000,%loadloss=1.470000000,%noloadloss=0.393000000
new transformer.TRF_1510229 Phases=3,Windings=2,Buses=[BMT180145605.1.2.3 BBT174239226.1.2.3.0],Conns=[delta wye],kvs=[13.800000000 0.22],kvas=[75.000000000 75.000000000],Taps=[1,1.000000000],XHL=3.720000000,%loadloss=1.470000000,%noloadloss=0.393000000
new transformer.TRF_1510623A Phases=1,Windings=3,Buses=[BMT179257146.1 BBT174324279.1.0 BBT174324279.0.2],Conns=[wye wye wye],kvs=[7.967 0.12 0.12],kvas=[10.000000000 10.000000000 10.000000000],Taps=[1,1.000000000,1.000000000],XHL=1.560000000,XHT=1.560000000,XLT=1.248000000,%loadloss=1.950000000,%noloadloss=0.500000000
new transformer.TRF_1516448A Phases=1,Windings=3,Buses=[BMT179257127.1 BBT175763802.1.0 BBT175763802.0.2],Conns=[wye wye wye],kvs=[7.967 0.12 0.12],kvas=[10.000000000 10.000000000 10.000000000],Taps=[1,1.000000000,1.000000000],XHL=1.560000000,XHT=1.560000000,XLT=1.248000000,%loadloss=1.950000000,%noloadloss=0.500000000
new transformer.TRF_104380 Phases=3,Windings=2,Buses=[BMT171967031.1.2.3 BBT499572.1.2.3.0],Conns=[delta wye],kvs=[13.800000000 0.22],kvas=[75.000000000 75.000000000],Taps=[1,1.000000000],XHL=3.720000000,%loadloss=1.470000000,%noloadloss=0.393000000
new transformer.TRF_1193341A Phases=1,Windings=3,Buses=[BMT179257117.1 BBT48054113.1.0 BBT48054113.0.2],Conns=[wye wye wye],kvs=[7.967 0.12 0.12],kvas=[5.000000000 5.000000000 5.000000000],Taps=[1,1.000000000,1.000000000],XHL=1.360000000,XHT=1.360000000,XLT=1.088000000,%loadloss=2.100000000,%noloadloss=0.700000000
new transformer.TRF_1193481A Phases=1,Windings=3,Buses=[BMT179143829.1 BBT40675196.1.0 BBT40675196.0.2],Conns=[wye wye wye],kvs=[7.967 0.12 0.12],kvas=[35.000000000 35.000000000 35.000000000],Taps=[1,1.000000000,1.000000000],XHL=2.060000000,XHT=2.060000000,XLT=1.648000000,%loadloss=1.410000000,%noloadloss=0.385000000
new transformer.TRF_1312663 Phases=3,Windings=2,Buses=[BMT176482918.1.2.3 BBT90428760.1.2.3.0],Conns=[delta wye],kvs=[13.800000000 0.22],kvas=[75.000000000 75.000000000],Taps=[1,1.000000000],XHL=3.720000000,%loadloss=1.470000000,%noloadloss=0.393000000
new transformer.TRF_1363161 Phases=3,Windings=2,Buses=[BMT176482886.1.2.3 BBT126271889.1.2.3.0],Conns=[delta wye],kvs=[13.800000000 0.22],kvas=[45.000000000 45.000000000],Taps=[1,1.000000000],XHL=3.640000000,%loadloss=1.670000000,%noloadloss=0.433000000
new transformer.TRF_1363385 Phases=3,Windings=2,Buses=[BMT170960329.1.2.3 BBT126432413.1.2.3.0],Conns=[delta wye],kvs=[13.800000000 0.22],kvas=[45.000000000 45.000000000],Taps=[1,1.000000000],XHL=3.640000000,%loadloss=1.670000000,%noloadloss=0.433000000
new transformer.TRF_1364491A Phases=1,Windings=3,Buses=[BMT165372655.3 BBT127371288.1.0 BBT127371288.0.2],Conns=[wye wye wye],kvs=[7.967 0.12 0.12],kvas=[5.000000000 5.000000000 5.000000000],Taps=[1,1.000000000,1.000000000],XHL=1.360000000,XHT=1.360000000,XLT=1.088000000,%loadloss=2.100000000,%noloadloss=0.700000000
new transformer.TRF_1390523 Phases=3,Windings=2,Buses=[BMT165372257.1.2.3 BBT148163830.1.2.3.0],Conns=[delta wye],kvs=[13.800000000 0.22],kvas=[75.000000000 75.000000000],Taps=[1,1.000000000],XHL=3.720000000,%loadloss=1.470000000,%noloadloss=0.393000000
new transformer.TRF_1390524 Phases=3,Windings=2,Buses=[BMT165372258.1.2.3 BBT148163939.1.2.3.0],Conns=[delta wye],kvs=[13.800000000 0.22],kvas=[75.000000000 75.000000000],Taps=[1,1.000000000],XHL=3.720000000,%loadloss=1.470000000,%noloadloss=0.393000000
new transformer.TRF_1390525 Phases=3,Windings=2,Buses=[BMT165372259.1.2.3 BBT148164441.1.2.3.0],Conns=[delta wye],kvs=[13.800000000 0.22],kvas=[75.000000000 75.000000000],Taps=[1,1.000000000],XHL=3.720000000,%loadloss=1.470000000,%noloadloss=0.393000000
new transformer.TRF_1390529 Phases=3,Windings=2,Buses=[BMT165372260.1.2.3 BBT148164948.1.2.3.0],Conns=[delta wye],kvs=[13.800000000 0.22],kvas=[75.000000000 75.000000000],Taps=[1,1.000000000],XHL=3.720000000,%loadloss=1.470000000,%noloadloss=0.393000000
new transformer.TRF_1390952 Phases=3,Windings=2,Buses=[BMT179143825.1.2.3 BBT148265080.1.2.3.0],Conns=[delta wye],kvs=[13.800000000 0.22],kvas=[45.000000000 45.000000000],Taps=[1,1.000000000],XHL=3.640000000,%loadloss=1.670000000,%noloadloss=0.433000000
new transformer.TRF_1412404A Phases=1,Windings=3,Buses=[BMT171019171.2 BBT153294926.1.0 BBT153294926.0.2],Conns=[wye wye wye],kvs=[7.967 0.12 0.12],kvas=[10.000000000 10.000000000 10.000000000],Taps=[1,1.000000000,1.000000000],XHL=1.560000000,XHT=1.560000000,XLT=1.248000000,%loadloss=1.950000000,%noloadloss=0.500000000
new transformer.TRF_1423851 Phases=3,Windings=2,Buses=[BMT170564359.1.2.3 BBT155864695.1.2.3.0],Conns=[delta wye],kvs=[13.800000000 0.22],kvas=[45.000000000 45.000000000],Taps=[1,1.000000000],XHL=3.640000000,%loadloss=1.670000000,%noloadloss=0.433000000
new transformer.TRF_1434891A Phases=1,Windings=3,Buses=[BMT176753942.1 BBT158165467.1.0 BBT158165467.0.2],Conns=[wye wye wye],kvs=[7.967 0.12 0.12],kvas=[10.000000000 10.000000000 10.000000000],Taps=[1,1.000000000,1.000000000],XHL=1.560000000,XHT=1.560000000,XLT=1.248000000,%loadloss=1.950000000,%noloadloss=0.500000000
new transformer.TRF_1440679 Phases=3,Windings=2,Buses=[BMT177084689.1.2.3 BBT159318446.1.2.3.0],Conns=[delta wye],kvs=[13.800000000 0.22],kvas=[150.000000000 150.000000000],Taps=[1,1.000000000],XHL=3.810000000,%loadloss=1.230000000,%noloadloss=0.323000000
new transformer.TRF_1440680 Phases=3,Windings=2,Buses=[BMT177084256.1.2.3 BBT159318474.1.2.3.0],Conns=[delta wye],kvs=[13.800000000 0.22],kvas=[45.000000000 45.000000000],Taps=[1,1.000000000],XHL=3.640000000,%loadloss=1.670000000,%noloadloss=0.433000000
new transformer.TRF_1445867A Phases=1,Windings=3,Buses=[BMT165372535.3 BBT160644594.1.0 BBT160644594.0.2],Conns=[wye wye wye],kvs=[7.967 0.12 0.12],kvas=[10.000000000 10.000000000 10.000000000],Taps=[1,1.000000000,1.000000000],XHL=1.560000000,XHT=1.560000000,XLT=1.248000000,%loadloss=1.950000000,%noloadloss=0.500000000
new transformer.TRF_1512688A Phases=1,Windings=3,Buses=[BMT179257147.1 BBT174857466.1.0 BBT174857466.0.2],Conns=[wye wye wye],kvs=[7.967 0.12 0.12],kvas=[10.000000000 10.000000000 10.000000000],Taps=[1,1.000000000,1.000000000],XHL=1.560000000,XHT=1.560000000,XLT=1.248000000,%loadloss=1.950000000,%noloadloss=0.500000000
...