2024_89_CemigReconfigurationCases/1_AlimsCemig/NVSU22/NVSU22SegmentosBT.dss
new line.SBT_10237193 bus1=BBT2589898.1.2.3.0,bus2=BBT2589905.1.2.3.0,Phases=3,Linecode=BT803_BT803_4_3_4_3,Length=0.031414000,Units=km
new line.SBT_10237221 bus1=BBT2589877.1.2.3.0,bus2=BBT2589898.1.2.3.0,Phases=3,Linecode=BT803_BT803_4_3_4_3,Length=0.030278000,Units=km
new line.SBT_10237228 bus1=BBT2589877.1.2.3.0,bus2=BBT2589884.1.2.3.0,Phases=3,Linecode=BT803_BT803_4_3_4_3,Length=0.038343000,Units=km
new line.SBT_10237277 bus1=BBT2589828.1.2.3.0,bus2=BBT2589870.1.2.3.0,Phases=3,Linecode=BT803_BT803_4_3_4_3,Length=0.045713000,Units=km
new line.SBT_10237333 bus1=BBT2589821.1.2.3.0,bus2=BBT2589828.1.2.3.0,Phases=3,Linecode=BT803_BT803_4_3_4_3,Length=0.048867000,Units=km
new line.SBT_10237340 bus1=BBT2589814.1.2.3.0,bus2=BBT2589821.1.2.3.0,Phases=3,Linecode=BT518_BT518_7_3_1_3,Length=0.000501000,Units=km
new line.SBT_10237347 bus1=BBT2589821.1.2.3.0,bus2=BBT2589835.1.2.3.0,Phases=3,Linecode=BT803_BT803_4_3_4_3,Length=0.045207000,Units=km
new line.SBT_10237529 bus1=BBT2589870.1.2.3.0,bus2=BBT2589877.1.2.3.0,Phases=3,Linecode=BT803_BT803_4_3_4_3,Length=0.042971000,Units=km
new line.SBT_10237592 bus1=BBT2589884.1.2.3.0,bus2=BBT2589891.1.2.3.0,Phases=3,Linecode=BT803_BT803_4_3_4_3,Length=0.039335000,Units=km
new line.SBT_10237641 bus1=BBT2589968.1.2.3.0,bus2=BBT2589975.1.2.3.0,Phases=3,Linecode=BT803_BT803_4_3_4_3,Length=0.039221000,Units=km
new line.SBT_10237690 bus1=BBT2589961.1.2.3.0,bus2=BBT2589968.1.2.3.0,Phases=3,Linecode=BT803_BT803_4_3_4_3,Length=0.027670000,Units=km
new line.SBT_10237837 bus1=BBT2589835.1.2.3.0,bus2=BBT2589842.1.2.3.0,Phases=3,Linecode=BT803_BT803_4_3_4_3,Length=0.047443000,Units=km
new line.SBT_10237914 bus1=BBT2589842.1.2.3.0,bus2=BBT2589849.1.2.3.0,Phases=3,Linecode=BT803_BT803_4_3_4_3,Length=0.047030000,Units=km
new line.SBT_10237956 bus1=BBT2589849.1.2.3.0,bus2=BBT2589856.1.2.3.0,Phases=3,Linecode=BT803_BT803_4_3_4_3,Length=0.039412000,Units=km
new line.SBT_10238033 bus1=BBT2589856.1.2.3.0,bus2=BBT176727503.1.2.3.0,Phases=3,Linecode=BT803_BT803_4_3_4_3,Length=0.025643000,Units=km
new line.SBT_10238089 bus1=BBT2589891.1.2.3.0,bus2=BBT2589912.1.2.3.0,Phases=3,Linecode=BT803_BT803_4_3_4_3,Length=0.039335000,Units=km
new line.SBT_10238117 bus1=BBT2589975.1.2.3.0,bus2=BBT2589982.1.2.3.0,Phases=3,Linecode=BT803_BT803_4_3_4_3,Length=0.039475000,Units=km
new line.SBT_10238173 bus1=BBT2589926.1.2.3.0,bus2=BBT2589961.1.2.3.0,Phases=3,Linecode=BT803_BT803_4_3_4_3,Length=0.039828000,Units=km
new line.SBT_10238208 bus1=BBT2589919.1.2.3.0,bus2=BBT2589933.1.2.3.0,Phases=3,Linecode=BT803_BT803_4_3_4_3,Length=0.038095000,Units=km
new line.SBT_10238229 bus1=BBT2589933.1.2.3.0,bus2=BBT2589940.1.2.3.0,Phases=3,Linecode=BT803_BT803_4_3_4_3,Length=0.037379000,Units=km
new line.SBT_10238257 bus1=BBT2589940.1.2.3.0,bus2=BBT56145588.1.2.3.0,Phases=3,Linecode=BT803_BT803_4_3_4_3,Length=0.025721000,Units=km
new line.SBT_10238376 bus1=BBT2589947.1.2.3.0,bus2=BBT2589954.1.2.3.0,Phases=3,Linecode=BT803_BT803_4_3_4_3,Length=0.039067000,Units=km
new line.SBT_10701846 bus1=BBT2657945.1.2.0,bus2=BBT2657952.1.2.0,Phases=2,Linecode=BT316_BT316_7_2_1_2,Length=0.000501000,Units=km
new line.SBT_10702238 bus1=BBT2657959.1.2.0,bus2=BBT2657966.1.2.0,Phases=2,Linecode=BT808_BT808_4_2_3_2,Length=0.054022000,Units=km
new line.SBT_10702455 bus1=BBT2658001.1.2.0,bus2=BBT2658008.1.2.0,Phases=2,Linecode=BT808_BT808_4_2_3_2,Length=0.046419000,Units=km
new line.SBT_10702476 bus1=BBT2658008.1.2.0,bus2=BBT3202062.1.2.0,Phases=2,Linecode=BT808_BT808_4_2_3_2,Length=0.038616000,Units=km
new line.SBT_10705885 bus1=BBT2659065.1.2.0,bus2=BBT2659072.1.2.0,Phases=2,Linecode=BT808_BT808_4_2_3_2,Length=0.022370000,Units=km
new line.SBT_10710610 bus1=BBT2659100.1.2.0,bus2=BBT2659128.1.2.0,Phases=2,Linecode=BT808_BT808_4_2_3_2,Length=0.051011000,Units=km
new line.SBT_10710680 bus1=BBT2659128.1.2.0,bus2=BBT2659135.1.2.0,Phases=2,Linecode=BT808_BT808_4_2_3_2,Length=0.045296000,Units=km
new line.SBT_10710729 bus1=BBT2659135.1.2.0,bus2=BBT2659142.1.2.0,Phases=2,Linecode=BT808_BT808_4_2_3_2,Length=0.052223000,Units=km
new line.SBT_10710806 bus1=BBT2659107.1.2.0,bus2=BBT2659114.1.2.0,Phases=2,Linecode=BT808_BT808_4_2_3_2,Length=0.041248000,Units=km
new line.SBT_10710841 bus1=BBT2659114.1.2.0,bus2=BBT2659121.1.2.0,Phases=2,Linecode=BT808_BT808_4_2_3_2,Length=0.041248000,Units=km
new line.SBT_10829694 bus1=BBT2670510.1.2.0,bus2=BBT2670517.1.2.0,Phases=2,Linecode=BT316_BT316_7_2_1_2,Length=0.000501000,Units=km
new line.SBT_10829918 bus1=BBT2670552.1.2.0,bus2=BBT2670559.1.2.0,Phases=2,Linecode=BT316_BT316_7_2_1_2,Length=0.000501000,Units=km
new line.SBT_10830044 bus1=BBT2670566.1.2.0,bus2=BBT2670573.1.2.0,Phases=2,Linecode=BT316_BT316_7_2_1_2,Length=0.000501000,Units=km
new line.SBT_10830135 bus1=BBT2670580.1.2.0,bus2=BBT2670587.1.2.0,Phases=2,Linecode=BT518_BT518_7_2_1_2,Length=0.000501000,Units=km
new line.SBT_10830142 bus1=BBT2670587.1.0,bus2=BBT2670601.1.0,Phases=1,Linecode=BT816_BT816_4_1_2_1,Length=0.042444000,Units=km
...